  59

 Ni         0.0358610530       -0.0774070962       -0.7360810825
 N         -1.6800586680       -0.0060120953        0.5675576694
 C         -2.8558303454        0.4059513988        0.2446632786
 N         -3.9602509528        0.2548260819        1.0175843134
 C         -5.2384029695        0.8257997030        0.6559626759
 C         -5.9181055723        0.0973424086       -0.5084280158
 C         -5.3946307377        0.5586039218       -1.8652262561
 C         -3.8997568280        0.3142200153       -2.0519735392
 C         -3.0153744755        1.0992652744       -1.0778454874
 C         -3.9741396804       -0.6601203803        2.1436087376
 C         -2.7619455905       -1.5755680999        2.0951722081
 C         -1.5374454986       -0.7060670485        1.8315894183
 H         -5.8735305737        0.7757974730        1.5446747972
 H         -5.1124638162        1.8826893287        0.4037752940
 H         -6.9936687718        0.2810445964       -0.4609124230
 H         -5.7568907286       -0.9771964099       -0.3969076881
 H         -5.6007588484        1.6261986844       -1.9818576151
 H         -5.9398974923        0.0318704554       -2.6518534931
 H         -3.6804582959       -0.7502430382       -1.9515607097
 H         -3.6299274342        0.6057663714       -3.0688215278
 H         -2.0033524921        1.1695840382       -1.4982293827
 H         -3.4025996421        2.1118023535       -0.9452714769
 H         -4.8970725642       -1.2502706089        2.1065840560
 H         -3.9783058644       -0.0857216738        3.0813726847
 H         -2.8679158479       -2.2904734120        1.2764714938
 H         -2.6643760638       -2.1263532811        3.0303905960
 H         -0.6289986466       -1.3108246148        1.7879429602
 H         -1.4233001383        0.0259988248        2.6422637593
 N          1.6160377957        0.1509234551        0.7138596349
 C          2.8120666653       -0.3118518027        0.6048779253
 N          3.8383546357        0.0146732426        1.4294670448
 C          5.1366042113       -0.6140519190        1.3310279873
 C          5.9388775216       -0.1567352755        0.1081459160
 C          5.5426087516       -0.9083412094       -1.1590613774
 C          4.0771705804       -0.7197104042       -1.5414500149
 C          3.0898552351       -1.2773907106       -0.5112053906
 C          3.7567793030        1.1560636385        2.3215350372
 C          2.5650709192        2.0264892568        1.9580773091
 C          1.3614964718        1.1083504077        1.7754324699
 H          5.6823132630       -0.3648068671        2.2452508389
 H          5.0192105846       -1.7013151232        1.3070142015
 H          7.0013675756       -0.3202538671        0.3011606108
 H          5.7859552490        0.9151646577       -0.0358126462
 H          5.7418761196       -1.9742518087       -1.0176185419
 H          6.1704555323       -0.5644614227       -1.9843416076
 H          3.8659630844        0.3395106436       -1.6985624246
 H          3.9032241039       -1.2288438565       -2.4913471414
 H          2.1229254114       -1.4451788960       -1.0038090070
 H          3.4468046062       -2.2334608483       -0.1221990322
 H          4.6858671630        1.7322489637        2.2420687025
 H          3.6662700960        0.8032319336        3.3591507297
 H          2.7566585640        2.5459225365        1.0167633131
 H          2.3849301869        2.7676582428        2.7363968999
 H          0.4679645720        1.6798287851        1.5149338731
 H          1.1631726368        0.5694577477        2.7116306824
 C          0.7012990054        1.2905566158       -1.6500731569
 O          1.5558835204        1.9459867512       -2.0610224407
 C         -0.5496807578       -1.6163782708       -1.3972168484
 O         -1.3649078731       -2.3554210618       -1.7409633054
