 xtb: 6.5.0 (97a52f5)
          05272218143D

 59  0  0     0  0            999 V2000
    0.0434   -0.2174   -0.9704 Ni  0  0  0  0  0  0  0  0  0  0  0  0
   -1.5906   -0.1371    0.4404 N   0  0  0  0  0  0  0  0  0  0  0  0
   -2.7458    0.3939    0.2532 C   0  0  0  0  0  0  0  0  0  0  0  0
   -3.7682    0.3748    1.1481 N   0  0  0  0  0  0  0  0  0  0  0  0
   -5.1011    0.8067    0.7897 C   0  0  0  0  0  0  0  0  0  0  0  0
   -5.7423   -0.0491   -0.3091 C   0  0  0  0  0  0  0  0  0  0  0  0
   -5.3529    0.4071   -1.7123 C   0  0  0  0  0  0  0  0  0  0  0  0
   -3.8607    0.2726   -1.9993 C   0  0  0  0  0  0  0  0  0  0  0  0
   -2.9761    1.0928   -1.0554 C   0  0  0  0  0  0  0  0  0  0  0  0
   -3.6283   -0.3313    2.4052 C   0  0  0  0  0  0  0  0  0  0  0  0
   -2.1662   -0.3374    2.8240 C   0  0  0  0  0  0  0  0  0  0  0  0
   -1.3512   -0.8879    1.6600 C   0  0  0  0  0  0  0  0  0  0  0  0
   -5.7101    0.7494    1.6951 H   0  0  0  0  0  0  0  0  0  0  0  0
   -5.0832    1.8549    0.4725 H   0  0  0  0  0  0  0  0  0  0  0  0
   -6.8283    0.0093   -0.2085 H   0  0  0  0  0  0  0  0  0  0  0  0
   -5.4489   -1.0910   -0.1650 H   0  0  0  0  0  0  0  0  0  0  0  0
   -5.6518    1.4513   -1.8409 H   0  0  0  0  0  0  0  0  0  0  0  0
   -5.9080   -0.1849   -2.4435 H   0  0  0  0  0  0  0  0  0  0  0  0
   -3.5591   -0.7747   -1.9388 H   0  0  0  0  0  0  0  0  0  0  0  0
   -3.6749    0.6052   -3.0222 H   0  0  0  0  0  0  0  0  0  0  0  0
   -1.9841    1.1950   -1.5147 H   0  0  0  0  0  0  0  0  0  0  0  0
   -3.3983    2.0880   -0.9044 H   0  0  0  0  0  0  0  0  0  0  0  0
   -3.9975   -1.3628    2.3120 H   0  0  0  0  0  0  0  0  0  0  0  0
   -4.2389    0.1775    3.1595 H   0  0  0  0  0  0  0  0  0  0  0  0
   -2.0304   -0.9437    3.7197 H   0  0  0  0  0  0  0  0  0  0  0  0
   -1.8464    0.6844    3.0414 H   0  0  0  0  0  0  0  0  0  0  0  0
   -1.6152   -1.9391    1.4835 H   0  0  0  0  0  0  0  0  0  0  0  0
   -0.2816   -0.8533    1.8796 H   0  0  0  0  0  0  0  0  0  0  0  0
    1.5528    0.3534    0.4659 N   0  0  0  0  0  0  0  0  0  0  0  0
    2.7047   -0.1912    0.6332 C   0  0  0  0  0  0  0  0  0  0  0  0
    3.6481    0.2323    1.5149 N   0  0  0  0  0  0  0  0  0  0  0  0
    4.9952   -0.2938    1.4979 C   0  0  0  0  0  0  0  0  0  0  0  0
    5.7465    0.0017    0.1945 C   0  0  0  0  0  0  0  0  0  0  0  0
    5.4648   -1.0303   -0.8937 C   0  0  0  0  0  0  0  0  0  0  0  0
    4.0056   -1.0582   -1.3379 C   0  0  0  0  0  0  0  0  0  0  0  0
    3.0254   -1.3918   -0.2092 C   0  0  0  0  0  0  0  0  0  0  0  0
    3.4228    1.4192    2.3143 C   0  0  0  0  0  0  0  0  0  0  0  0
    1.9315    1.5906    2.5586 C   0  0  0  0  0  0  0  0  0  0  0  0
    1.2320    1.5614    1.2050 C   0  0  0  0  0  0  0  0  0  0  0  0
    5.5278    0.1640    2.3350 H   0  0  0  0  0  0  0  0  0  0  0  0
    4.9778   -1.3750    1.6725 H   0  0  0  0  0  0  0  0  0  0  0  0
    6.8186    0.0098    0.4031 H   0  0  0  0  0  0  0  0  0  0  0  0
    5.4673    0.9965   -0.1591 H   0  0  0  0  0  0  0  0  0  0  0  0
    5.7480   -2.0202   -0.5249 H   0  0  0  0  0  0  0  0  0  0  0  0
    6.0933   -0.8114   -1.7599 H   0  0  0  0  0  0  0  0  0  0  0  0
    3.7257   -0.0958   -1.7705 H   0  0  0  0  0  0  0  0  0  0  0  0
    3.8980   -1.8099   -2.1220 H   0  0  0  0  0  0  0  0  0  0  0  0
    2.0729   -1.6999   -0.6599 H   0  0  0  0  0  0  0  0  0  0  0  0
    3.4086   -2.2126    0.3998 H   0  0  0  0  0  0  0  0  0  0  0  0
    3.8259    2.3083    1.8081 H   0  0  0  0  0  0  0  0  0  0  0  0
    3.9545    1.3037    3.2654 H   0  0  0  0  0  0  0  0  0  0  0  0
    1.7374    2.5277    3.0806 H   0  0  0  0  0  0  0  0  0  0  0  0
    1.5672    0.7650    3.1747 H   0  0  0  0  0  0  0  0  0  0  0  0
    1.5380    2.4308    0.6080 H   0  0  0  0  0  0  0  0  0  0  0  0
    0.1472    1.6131    1.3232 H   0  0  0  0  0  0  0  0  0  0  0  0
    0.5908    1.0281   -2.1101 C   0  0  0  0  0  0  0  0  0  0  0  0
    1.3958    1.6087   -2.6958 O   0  0  0  0  0  0  0  0  0  0  0  0
   -0.4303   -1.8442   -1.4981 C   0  0  0  0  0  0  0  0  0  0  0  0
   -1.1928   -2.6387   -1.8382 O   0  0  0  0  0  0  0  0  0  0  0  0
M  END
