 xtb: 6.5.0 (97a52f5)
          05272218143D

 59  0  0     0  0            999 V2000
    0.0018   -1.0765   -0.6366 Ni  0  0  0  0  0  0  0  0  0  0  0  0
   -1.5369    0.4299   -0.5520 N   0  0  0  0  0  0  0  0  0  0  0  0
   -2.7811    0.2643   -0.2726 C   0  0  0  0  0  0  0  0  0  0  0  0
   -3.7118    1.2510   -0.2871 N   0  0  0  0  0  0  0  0  0  0  0  0
   -5.1161    0.9900   -0.0644 C   0  0  0  0  0  0  0  0  0  0  0  0
   -5.4440    0.6659    1.3974 C   0  0  0  0  0  0  0  0  0  0  0  0
   -5.1762   -0.7956    1.7450 C   0  0  0  0  0  0  0  0  0  0  0  0
   -3.7183   -1.2068    1.5556 C   0  0  0  0  0  0  0  0  0  0  0  0
   -3.2351   -1.1159    0.1053 C   0  0  0  0  0  0  0  0  0  0  0  0
   -3.3370    2.6469   -0.4077 C   0  0  0  0  0  0  0  0  0  0  0  0
   -1.8492    2.8205   -0.1477 C   0  0  0  0  0  0  0  0  0  0  0  0
   -1.1109    1.7578   -0.9545 C   0  0  0  0  0  0  0  0  0  0  0  0
   -5.6619    1.8853   -0.3736 H   0  0  0  0  0  0  0  0  0  0  0  0
   -5.4481    0.1679   -0.7054 H   0  0  0  0  0  0  0  0  0  0  0  0
   -6.4984    0.8851    1.5788 H   0  0  0  0  0  0  0  0  0  0  0  0
   -4.8513    1.3155    2.0457 H   0  0  0  0  0  0  0  0  0  0  0  0
   -5.8101   -1.4311    1.1210 H   0  0  0  0  0  0  0  0  0  0  0  0
   -5.4618   -0.9689    2.7854 H   0  0  0  0  0  0  0  0  0  0  0  0
   -3.0736   -0.5901    2.1857 H   0  0  0  0  0  0  0  0  0  0  0  0
   -3.6090   -2.2401    1.8906 H   0  0  0  0  0  0  0  0  0  0  0  0
   -2.3566   -1.7610   -0.0284 H   0  0  0  0  0  0  0  0  0  0  0  0
   -4.0128   -1.4667   -0.5757 H   0  0  0  0  0  0  0  0  0  0  0  0
   -3.9193    3.2312    0.3147 H   0  0  0  0  0  0  0  0  0  0  0  0
   -3.5883    3.0087   -1.4149 H   0  0  0  0  0  0  0  0  0  0  0  0
   -1.6401    2.6697    0.9141 H   0  0  0  0  0  0  0  0  0  0  0  0
   -1.5315    3.8248   -0.4279 H   0  0  0  0  0  0  0  0  0  0  0  0
   -0.0312    1.8315   -0.8142 H   0  0  0  0  0  0  0  0  0  0  0  0
   -1.3193    1.8930   -2.0243 H   0  0  0  0  0  0  0  0  0  0  0  0
    1.4906   -0.0026    0.5139 N   0  0  0  0  0  0  0  0  0  0  0  0
    2.7623   -0.0694    0.3358 C   0  0  0  0  0  0  0  0  0  0  0  0
    3.6954    0.4478    1.1750 N   0  0  0  0  0  0  0  0  0  0  0  0
    5.0935    0.5207    0.8132 C   0  0  0  0  0  0  0  0  0  0  0  0
    5.3580    1.4234   -0.3977 C   0  0  0  0  0  0  0  0  0  0  0  0
    5.1773    0.6976   -1.7279 C   0  0  0  0  0  0  0  0  0  0  0  0
    3.7490    0.2169   -1.9658 C   0  0  0  0  0  0  0  0  0  0  0  0
    3.2504   -0.7651   -0.9025 C   0  0  0  0  0  0  0  0  0  0  0  0
    3.3024    1.0872    2.4137 C   0  0  0  0  0  0  0  0  0  0  0  0
    1.9559    0.5413    2.8622 C   0  0  0  0  0  0  0  0  0  0  0  0
    0.9881    0.6794    1.6937 C   0  0  0  0  0  0  0  0  0  0  0  0
    5.6283    0.9167    1.6797 H   0  0  0  0  0  0  0  0  0  0  0  0
    5.4874   -0.4822    0.6142 H   0  0  0  0  0  0  0  0  0  0  0  0
    6.3830    1.7954   -0.3373 H   0  0  0  0  0  0  0  0  0  0  0  0
    4.6873    2.2843   -0.3517 H   0  0  0  0  0  0  0  0  0  0  0  0
    5.8544   -0.1603   -1.7576 H   0  0  0  0  0  0  0  0  0  0  0  0
    5.4651    1.3700   -2.5396 H   0  0  0  0  0  0  0  0  0  0  0  0
    3.0677    1.0695   -2.0033 H   0  0  0  0  0  0  0  0  0  0  0  0
    3.7088   -0.2757   -2.9391 H   0  0  0  0  0  0  0  0  0  0  0  0
    2.3820   -1.3080   -1.3000 H   0  0  0  0  0  0  0  0  0  0  0  0
    4.0272   -1.4919   -0.6601 H   0  0  0  0  0  0  0  0  0  0  0  0
    3.2441    2.1778    2.2813 H   0  0  0  0  0  0  0  0  0  0  0  0
    4.0671    0.8815    3.1708 H   0  0  0  0  0  0  0  0  0  0  0  0
    1.5982    1.0829    3.7379 H   0  0  0  0  0  0  0  0  0  0  0  0
    2.0573   -0.5151    3.1186 H   0  0  0  0  0  0  0  0  0  0  0  0
    0.8407    1.7428    1.4609 H   0  0  0  0  0  0  0  0  0  0  0  0
    0.0124    0.2535    1.9415 H   0  0  0  0  0  0  0  0  0  0  0  0
   -0.0793   -1.1373   -2.4107 C   0  0  0  0  0  0  0  0  0  0  0  0
   -0.5978   -1.1368   -3.4384 O   0  0  0  0  0  0  0  0  0  0  0  0
    0.1470   -2.4653    0.4599 C   0  0  0  0  0  0  0  0  0  0  0  0
    0.7127   -3.2070    1.1366 O   0  0  0  0  0  0  0  0  0  0  0  0
M  END
