  59

 Ni         0.0210277203       -1.3531737802       -0.4696756012
 N         -2.0109042748       -0.6128402859       -0.4135597366
 C         -2.5557547613       -0.0110386196        0.5830776147
 N         -3.8882859763        0.2140855526        0.7288964067
 C         -4.4377931819        0.8784853702        1.8876197189
 C         -4.1124300155        2.3749123028        1.9507295232
 C         -2.7363799353        2.6453949986        2.5497512315
 C         -1.6011374959        2.0350367944        1.7332322958
 C         -1.6396301090        0.5058968611        1.6577698628
 C         -4.7975215954       -0.1499805303       -0.3377476624
 C         -4.2701453074       -1.3923391415       -1.0401660741
 C         -2.8450545441       -1.1065152305       -1.4972378888
 H         -5.5222780051        0.7497657425        1.8495372288
 H         -4.0822114208        0.3914198426        2.8020804582
 H         -4.8683929086        2.8717976532        2.5623587985
 H         -4.1688052724        2.7943004699        0.9438609193
 H         -2.7047268666        2.2448277401        3.5663923171
 H         -2.5844669998        3.7255380502        2.6179177195
 H         -1.6206471434        2.4448362411        0.7211439254
 H         -0.6540195894        2.3307826459        2.1903864201
 H         -0.6393836748        0.1388337541        1.3947291449
 H         -1.9083271254        0.0870272047        2.6295423596
 H         -4.8953113717        0.6763301849       -1.0568824152
 H         -5.7864405400       -0.3426888453        0.0890013193
 H         -4.9053851783       -1.6536630619       -1.8861283389
 H         -4.2612282919       -2.2270476897       -0.3364934763
 H         -2.8460524007       -0.3580163789       -2.3008367746
 H         -2.3823488966       -2.0147968735       -1.8928658508
 N          1.1999191241        0.4615083111       -0.4659819974
 C          2.3825868616        0.6114954314        0.0145671498
 N          3.1507168908        1.7228537245       -0.1336373855
 C          4.5367152587        1.7520172180        0.2775446123
 C          5.4250333480        0.7747210301       -0.5010273765
 C          5.4066442552       -0.6319983412        0.0896836574
 C          4.0320806481       -1.2911801761        0.0365027950
 C          2.9514704973       -0.5285761508        0.8096437847
 C          2.6934684499        2.8128868084       -0.9706057351
 C          1.1754644296        2.8844395043       -0.9143971963
 C          0.6294668377        1.5122445202       -1.2892311677
 H          4.8956051925        2.7720936038        0.1200427099
 H          4.6129425775        1.5399331605        1.3493184370
 H          6.4510080629        1.1489282342       -0.4892949659
 H          5.0927336867        0.7428553919       -1.5406993219
 H          5.7434967367       -0.5843926958        1.1291287656
 H          6.1182817770       -1.2548527670       -0.4570023090
 H          3.7080948239       -1.4008312233       -0.9999605829
 H          4.1140375282       -2.2945216431        0.4584411966
 H          2.1130582612       -1.2131035834        0.9906957647
 H          3.3400900107       -0.1856870936        1.7704180655
 H          3.0265769557        2.6707613939       -2.0086936701
 H          3.1338505174        3.7449485474       -0.6004011819
 H          0.8051770202        3.6519680109       -1.5942117555
 H          0.8648148181        3.1355938157        0.1018340543
 H          0.8544455430        1.2953921362       -2.3416677241
 H         -0.4562211233        1.4767687202       -1.1739384024
 C          0.6595936820       -1.8206260917       -2.0637113242
 O          1.4849246884       -1.9529355636       -2.8551515472
 C         -0.1975578675       -2.5378564529        0.8350408904
 O         -0.7682814550       -3.3470379997        1.4242464616
