 xtb: 6.5.0 (97a52f5)
          05272218123D

 59  0  0     0  0            999 V2000
   -0.0042   -0.9081   -0.5128 Ni  0  0  0  0  0  0  0  0  0  0  0  0
   -1.5935    0.5360   -0.2498 N   0  0  0  0  0  0  0  0  0  0  0  0
   -2.8504    0.2640   -0.2253 C   0  0  0  0  0  0  0  0  0  0  0  0
   -3.8484    1.1818   -0.2909 N   0  0  0  0  0  0  0  0  0  0  0  0
   -5.2307    0.8286   -0.0563 C   0  0  0  0  0  0  0  0  0  0  0  0
   -5.4928    0.3265    1.3685 C   0  0  0  0  0  0  0  0  0  0  0  0
   -5.2092   -1.1639    1.5328 C   0  0  0  0  0  0  0  0  0  0  0  0
   -3.7463   -1.5302    1.3013 C   0  0  0  0  0  0  0  0  0  0  0  0
   -3.2440   -1.1805   -0.1021 C   0  0  0  0  0  0  0  0  0  0  0  0
   -3.5515    2.5882   -0.4694 C   0  0  0  0  0  0  0  0  0  0  0  0
   -2.1979    2.7404   -1.1445 C   0  0  0  0  0  0  0  0  0  0  0  0
   -1.1881    1.9272   -0.3441 C   0  0  0  0  0  0  0  0  0  0  0  0
   -5.8255    1.7276   -0.2344 H   0  0  0  0  0  0  0  0  0  0  0  0
   -5.5576    0.0705   -0.7767 H   0  0  0  0  0  0  0  0  0  0  0  0
   -6.5399    0.5136    1.6162 H   0  0  0  0  0  0  0  0  0  0  0  0
   -4.8773    0.8995    2.0653 H   0  0  0  0  0  0  0  0  0  0  0  0
   -5.8342   -1.7227    0.8310 H   0  0  0  0  0  0  0  0  0  0  0  0
   -5.4962   -1.4694    2.5418 H   0  0  0  0  0  0  0  0  0  0  0  0
   -3.1139   -1.0275    2.0361 H   0  0  0  0  0  0  0  0  0  0  0  0
   -3.6321   -2.6052    1.4531 H   0  0  0  0  0  0  0  0  0  0  0  0
   -2.3313   -1.7562   -0.3071 H   0  0  0  0  0  0  0  0  0  0  0  0
   -3.9911   -1.4461   -0.8515 H   0  0  0  0  0  0  0  0  0  0  0  0
   -3.5514    3.1062    0.5011 H   0  0  0  0  0  0  0  0  0  0  0  0
   -4.3373    3.0352   -1.0885 H   0  0  0  0  0  0  0  0  0  0  0  0
   -1.9113    3.7910   -1.1907 H   0  0  0  0  0  0  0  0  0  0  0  0
   -2.2495    2.3444   -2.1606 H   0  0  0  0  0  0  0  0  0  0  0  0
   -1.0983    2.3427    0.6685 H   0  0  0  0  0  0  0  0  0  0  0  0
   -0.2007    1.9632   -0.8106 H   0  0  0  0  0  0  0  0  0  0  0  0
    1.5959    0.0558    0.5793 N   0  0  0  0  0  0  0  0  0  0  0  0
    2.8511   -0.0758    0.3307 C   0  0  0  0  0  0  0  0  0  0  0  0
    3.8548    0.3353    1.1468 N   0  0  0  0  0  0  0  0  0  0  0  0
    5.2359    0.3426    0.7187 C   0  0  0  0  0  0  0  0  0  0  0  0
    5.5008    1.2979   -0.4509 C   0  0  0  0  0  0  0  0  0  0  0  0
    5.2092    0.6666   -1.8092 C   0  0  0  0  0  0  0  0  0  0  0  0
    3.7429    0.2896   -1.9984 C   0  0  0  0  0  0  0  0  0  0  0  0
    3.2354   -0.7237   -0.9690 C   0  0  0  0  0  0  0  0  0  0  0  0
    3.5676    0.9102    2.4449 C   0  0  0  0  0  0  0  0  0  0  0  0
    2.2094    0.4261    2.9266 C   0  0  0  0  0  0  0  0  0  0  0  0
    1.2006    0.7016    1.8184 C   0  0  0  0  0  0  0  0  0  0  0  0
    5.8356    0.6528    1.5775 H   0  0  0  0  0  0  0  0  0  0  0  0
    5.5548   -0.6690    0.4436 H   0  0  0  0  0  0  0  0  0  0  0  0
    6.5499    1.6001   -0.4226 H   0  0  0  0  0  0  0  0  0  0  0  0
    4.8913    2.1949   -0.3211 H   0  0  0  0  0  0  0  0  0  0  0  0
    5.8273   -0.2279   -1.9238 H   0  0  0  0  0  0  0  0  0  0  0  0
    5.4995    1.3681   -2.5950 H   0  0  0  0  0  0  0  0  0  0  0  0
    3.1174    1.1833   -1.9494 H   0  0  0  0  0  0  0  0  0  0  0  0
    3.6232   -0.1387   -2.9953 H   0  0  0  0  0  0  0  0  0  0  0  0
    2.3176   -1.1902   -1.3517 H   0  0  0  0  0  0  0  0  0  0  0  0
    3.9765   -1.5082   -0.8090 H   0  0  0  0  0  0  0  0  0  0  0  0
    3.5806    2.0088    2.3888 H   0  0  0  0  0  0  0  0  0  0  0  0
    4.3514    0.6005    3.1451 H   0  0  0  0  0  0  0  0  0  0  0  0
    1.9300    0.9331    3.8502 H   0  0  0  0  0  0  0  0  0  0  0  0
    2.2491   -0.6488    3.1132 H   0  0  0  0  0  0  0  0  0  0  0  0
    1.1241    1.7840    1.6487 H   0  0  0  0  0  0  0  0  0  0  0  0
    0.2091    0.3336    2.0930 H   0  0  0  0  0  0  0  0  0  0  0  0
   -0.2056   -0.7956   -2.2740 C   0  0  0  0  0  0  0  0  0  0  0  0
   -0.7979   -0.6489   -3.2511 O   0  0  0  0  0  0  0  0  0  0  0  0
    0.1910   -2.3559    0.4975 C   0  0  0  0  0  0  0  0  0  0  0  0
    0.7794   -3.1184    1.1295 O   0  0  0  0  0  0  0  0  0  0  0  0
M  END
